Version 4
SHEET 1 1928 1224
WIRE -288 -16 -352 -16
WIRE -128 -16 -208 -16
WIRE 16 -16 -48 -16
WIRE -352 0 -352 -16
WIRE 16 32 16 -16
WIRE 112 32 16 32
WIRE 240 32 112 32
WIRE 416 32 320 32
WIRE 560 32 496 32
WIRE 720 32 560 32
WIRE 816 32 720 32
WIRE 240 64 240 32
WIRE 320 64 320 32
WIRE 816 64 816 32
WIRE 112 80 112 32
WIRE 560 80 560 32
WIRE -352 112 -352 80
WIRE -352 112 -752 112
WIRE -352 144 -352 112
WIRE -752 176 -752 112
WIRE 112 192 112 144
WIRE 112 192 16 192
WIRE 240 192 240 160
WIRE 240 192 112 192
WIRE 320 192 320 160
WIRE 416 192 320 192
WIRE 560 192 560 144
WIRE 560 192 496 192
WIRE 624 192 560 192
WIRE 816 192 816 144
WIRE 816 192 624 192
WIRE -352 240 -352 224
WIRE -288 240 -352 240
WIRE -128 240 -208 240
WIRE 16 240 16 192
WIRE 16 240 -48 240
WIRE 624 240 624 192
WIRE 624 240 544 240
WIRE 544 256 544 240
WIRE 624 256 624 240
WIRE 720 256 720 32
WIRE -752 320 -752 256
WIRE 544 336 544 320
WIRE 624 336 624 320
WIRE 624 336 544 336
WIRE 624 352 624 336
WIRE 720 352 720 320
WIRE 96 784 -272 784
WIRE -272 800 -272 784
WIRE 96 832 96 784
WIRE 192 832 96 832
WIRE 304 832 192 832
WIRE 496 832 416 832
WIRE 640 832 576 832
WIRE 800 832 640 832
WIRE 896 832 800 832
WIRE 896 864 896 832
WIRE 192 880 192 832
WIRE 304 880 304 832
WIRE 320 880 304 880
WIRE 416 880 416 832
WIRE 416 880 400 880
WIRE 640 880 640 832
WIRE -272 912 -272 880
WIRE -272 912 -672 912
WIRE -272 944 -272 912
WIRE 320 944 304 944
WIRE 416 944 400 944
WIRE -672 976 -672 912
WIRE 192 992 192 944
WIRE 192 992 96 992
WIRE 304 992 304 944
WIRE 304 992 192 992
WIRE 416 992 416 944
WIRE 496 992 416 992
WIRE 640 992 640 944
WIRE 640 992 576 992
WIRE 704 992 640 992
WIRE 896 992 896 944
WIRE 896 992 704 992
WIRE -272 1040 -272 1024
WIRE 96 1040 96 992
WIRE 96 1040 -272 1040
WIRE 704 1056 704 992
WIRE 800 1056 800 832
WIRE -672 1120 -672 1056
WIRE 704 1136 704 1120
WIRE 800 1136 800 1120
FLAG 624 352 0
FLAG 720 352 0
FLAG 816 32 out+
FLAG 816 192 out-
FLAG 112 32 in+
FLAG 112 192 in-
FLAG -752 320 0
FLAG 704 1136 0
FLAG 800 1136 0
FLAG 896 832 out2+
FLAG 896 992 out2-
FLAG 192 832 in2+
FLAG 192 992 in2-
FLAG -672 1120 0
FLAG -192 160 0
FLAG -112 960 0
SYMBOL Misc\\signal -352 -16 R0
WINDOW 0 -65 47 Left 2
WINDOW 3 -348 71 Left 2
WINDOW 123 -109 94 Left 2
SYMATTR InstName V2
SYMATTR Value EXP(0 2.5m 200u 100u 10)
SYMATTR Value2 AC 2.5m
SYMATTR SpiceLine Rser=1u
SYMBOL res 512 16 R90
WINDOW 0 0 56 VBottom 2
WINDOW 3 32 56 VTop 2
SYMATTR InstName R1
SYMATTR Value 47
SYMBOL res 512 176 R90
WINDOW 0 0 56 VBottom 2
WINDOW 3 32 56 VTop 2
SYMATTR InstName 47
SYMATTR Value 47
SYMBOL Misc\\signal -352 128 R0
WINDOW 0 -65 47 Left 2
WINDOW 3 -350 71 Left 2
WINDOW 123 -111 98 Left 2
SYMATTR InstName V5
SYMATTR Value EXP(0 2.5m 200u 100u 10)
SYMATTR Value2 AC 2.5m
SYMATTR SpiceLine Rser=1u
SYMBOL Misc\\signal -752 160 R0
WINDOW 0 -65 47 Left 2
WINDOW 3 -251 70 Left 2
WINDOW 123 -117 99 Left 2
SYMATTR InstName V1
SYMATTR Value SINE(0 200 1Meg)
SYMATTR Value2 AC 200
SYMATTR SpiceLine Rser=1u
SYMBOL res 800 48 R0
SYMATTR InstName R4
SYMATTR Value 30G
SYMBOL Misc\\signal -192 64 R0
WINDOW 0 35 38 Left 2
WINDOW 3 36 61 Left 2
WINDOW 123 36 85 Left 2
SYMATTR InstName V3
SYMATTR Value SINE(0 10m 1Meg)
SYMATTR Value2 AC 10m
SYMATTR SpiceLine Rser=1u
SYMBOL ind2 336 48 R90
WINDOW 0 4 56 VBottom 2
WINDOW 3 32 56 VTop 2
SYMATTR InstName L1
SYMATTR Value 100µ
SYMBOL ind2 336 176 M270
WINDOW 0 -25 54 VTop 2
WINDOW 3 59 56 VBottom 2
SYMATTR InstName L2
SYMATTR Value 100µ
SYMBOL Misc\\signal -272 784 R0
WINDOW 0 -65 47 Left 2
WINDOW 3 -348 71 Left 2
WINDOW 123 -109 94 Left 2
SYMATTR InstName V4
SYMATTR Value EXP(0 2.5m 200u 100u 10)
SYMATTR Value2 AC 2.5m
SYMATTR SpiceLine Rser=1u
SYMBOL res 592 816 R90
WINDOW 0 0 56 VBottom 2
WINDOW 3 32 56 VTop 2
SYMATTR InstName R3
SYMATTR Value 470
SYMBOL res 592 976 R90
WINDOW 0 0 56 VBottom 2
WINDOW 3 32 56 VTop 2
SYMATTR InstName R5
SYMATTR Value 470
SYMBOL Misc\\signal -272 928 R0
WINDOW 0 -65 47 Left 2
WINDOW 3 -350 71 Left 2
WINDOW 123 -111 98 Left 2
SYMATTR InstName V6
SYMATTR Value EXP(0 2.5m 200u 100u 10)
SYMATTR Value2 AC 2.5m
SYMATTR SpiceLine Rser=1u
SYMBOL Misc\\signal -672 960 R0
WINDOW 0 -65 47 Left 2
WINDOW 3 -251 70 Left 2
WINDOW 123 -117 99 Left 2
SYMATTR InstName V7
SYMATTR Value SINE(0 200 1Meg)
SYMATTR Value2 AC 200
SYMATTR SpiceLine Rser=1u
SYMBOL res 880 848 R0
SYMATTR InstName R6
SYMATTR Value 30G
SYMBOL Misc\\signal -112 864 R0
WINDOW 0 35 38 Left 2
WINDOW 3 36 61 Left 2
WINDOW 123 36 85 Left 2
SYMATTR InstName V8
SYMATTR Value SINE(0 10m 1Meg)
SYMATTR Value2 AC 10m
SYMATTR SpiceLine Rser=1u
SYMBOL ECK+2N2630V1206XX0 624 880 R0
SYMATTR InstName U1
SYMBOL ECK+2N2630V1206XX0 176 880 R0
SYMATTR InstName U6
SYMBOL ECK+10N50VXXZ 688 1056 R0
SYMATTR InstName U7
SYMBOL ECK+10N50VXXZ 784 1056 R0
SYMATTR InstName U8
SYMBOL EL-1M10ACMXX0 304 896 R270
WINDOW 0 57 36 VRight 2
SYMATTR InstName U9
SYMBOL cap 96 80 R0
SYMATTR InstName C1
SYMATTR Value 22n
SYMBOL cap 544 80 R0
SYMATTR InstName C2
SYMATTR Value 22n
SYMBOL cap 608 256 R0
SYMATTR InstName C3
SYMATTR Value 95n
SYMBOL cap 704 256 R0
SYMATTR InstName C4
SYMATTR Value 105n
SYMBOL res -192 -32 R90
WINDOW 0 0 56 VBottom 2
WINDOW 3 32 56 VTop 2
SYMATTR InstName R2
SYMATTR Value 18
SYMBOL res -192 224 R90
WINDOW 0 0 56 VBottom 2
WINDOW 3 32 56 VTop 2
SYMATTR InstName R7
SYMATTR Value 40
SYMBOL res -32 -32 R90
WINDOW 0 0 56 VBottom 2
WINDOW 3 32 56 VTop 2
SYMATTR InstName R8
SYMATTR Value 22
SYMBOL res -32 224 R90
WINDOW 0 0 56 VBottom 2
WINDOW 3 32 56 VTop 2
SYMATTR InstName R9
SYMATTR Value 0
SYMBOL cap 528 256 R0
SYMATTR InstName C5
SYMATTR Value 10n
TEXT 72 400 Left 2 !.ac dec 100 1 100Meg
TEXT 80 432 Left 2 !;tran 0 1.1m 100u
TEXT -664 536 Left 2 !.meas AC vout_max_diff MAX MAG(V(out+, out-)/V(in+, in-))
TEXT -664 568 Left 2 !.meas AC vout_3db_diff PARAM vout_max_diff/sqrt(2)
TEXT -664 600 Left 2 !.meas AC fc_diff FIND freq WHEN MAG(V(out+, out-)/V(in+, in-))=vout_3db_diff
TEXT 304 536 Left 2 !.meas AC vout_max_cm MAX MAG(V(out+)/V(in+))
TEXT 304 568 Left 2 !.meas AC vout_3db_cm PARAM vout_max_cm/sqrt(2)
TEXT 304 600 Left 2 !.meas AC fc_cm FIND freq WHEN MAG(V(out+)/V(in+))=vout_3db_cm
TEXT 200 -40 Left 2 !K1 L1 L2 0.997
TEXT 344 976 Left 2 ;1m
TEXT 648 936 Left 2 ;2n2
TEXT 200 936 Left 2 ;2n2
TEXT 712 1112 Left 2 ;10n
TEXT 808 1112 Left 2 ;10n
