Version 4
SHEET 1 1928 680
WIRE 48 -16 -176 -16
WIRE -176 0 -176 -16
WIRE 48 32 48 -16
WIRE 112 32 48 32
WIRE 224 32 112 32
WIRE 416 32 336 32
WIRE 560 32 496 32
WIRE 720 32 560 32
WIRE 816 32 720 32
WIRE 112 80 112 32
WIRE 224 80 224 32
WIRE 240 80 224 80
WIRE 336 80 336 32
WIRE 336 80 320 80
WIRE 560 80 560 32
WIRE -176 112 -176 80
WIRE -176 112 -480 112
WIRE -176 144 -176 112
WIRE 240 144 224 144
WIRE 336 144 320 144
WIRE -480 176 -480 112
WIRE 112 192 112 144
WIRE 112 192 48 192
WIRE 224 192 224 144
WIRE 224 192 112 192
WIRE 336 192 336 144
WIRE 416 192 336 192
WIRE 560 192 560 144
WIRE 560 192 496 192
WIRE 640 192 560 192
WIRE 816 192 640 192
WIRE -176 240 -176 224
WIRE 48 240 48 192
WIRE 48 240 -176 240
WIRE 640 256 640 192
WIRE 720 256 720 32
WIRE -480 320 -480 256
WIRE 640 336 640 320
WIRE 720 336 720 320
FLAG 640 336 0
FLAG 720 336 0
FLAG 816 32 out+
FLAG 816 192 out-
FLAG 112 32 in+
FLAG 112 192 in-
FLAG -480 320 0
SYMBOL Misc\\signal -176 -16 R0
WINDOW 0 -65 47 Left 2
WINDOW 3 -209 70 Left 2
WINDOW 123 -212 95 Left 2
WINDOW 39 0 0 Left 0
SYMATTR InstName V2
SYMATTR Value SINE(0 1m 1k)
SYMATTR Value2 AC 1m
SYMBOL res 512 16 R90
WINDOW 0 0 56 VBottom 2
WINDOW 3 32 56 VTop 2
SYMATTR InstName R1
SYMATTR Value 470
SYMBOL res 512 176 R90
WINDOW 0 0 56 VBottom 2
WINDOW 3 32 56 VTop 2
SYMATTR InstName R2
SYMATTR Value 470
SYMBOL EL-1M10ACMXX0 224 96 R270
SYMATTR InstName U1
SYMBOL ECK+100N1kV2220XXK 96 80 R0
SYMATTR InstName U8
SYMBOL ECK+100N1kV2220XXK 544 80 R0
SYMATTR InstName U9
SYMBOL ECK+10N50VXXZ 624 256 R0
SYMATTR InstName U2
SYMBOL ECK+10N50VXXZ 704 256 R0
SYMATTR InstName U3
SYMBOL Misc\\signal -176 128 R0
WINDOW 0 -65 47 Left 2
WINDOW 3 -214 72 Left 2
WINDOW 123 -216 98 Left 2
WINDOW 39 0 0 Left 0
SYMATTR InstName V5
SYMATTR Value SINE(0 1m 1k)
SYMATTR Value2 AC 1m
SYMBOL Misc\\signal -480 160 R0
WINDOW 0 -65 47 Left 2
WINDOW 3 -191 71 Left 2
WINDOW 123 -195 94 Left 2
WINDOW 39 0 0 Left 0
SYMATTR InstName V1
SYMATTR Value SINE(0 200 1Meg)
SYMATTR Value2 AC 200
TEXT 200 416 Left 2 !;ac dec 100 1 100Meg
TEXT 208 456 Left 2 !.tran 10m
TEXT 264 176 Left 2 ;1m
TEXT 120 136 Left 2 ;100n
TEXT 568 136 Left 2 ;100n
TEXT 648 312 Left 2 ;10n
TEXT 728 312 Left 2 ;10n
