Version 4
SHEET 1 2260 1224
WIRE 880 -48 864 -48
WIRE 976 -48 960 -48
WIRE 1152 -48 1136 -48
WIRE 1248 -48 1232 -48
WIRE 1408 -48 1392 -48
WIRE 1504 -48 1488 -48
WIRE -160 -16 -352 -16
WIRE 0 -16 -80 -16
WIRE 144 -16 80 -16
WIRE -352 0 -352 -16
WIRE 864 0 864 -48
WIRE 864 0 832 0
WIRE 976 0 976 -48
WIRE 1040 0 976 0
WIRE 1136 0 1136 -48
WIRE 1136 0 1040 0
WIRE 1248 0 1248 -48
WIRE 1312 0 1248 0
WIRE 1392 0 1392 -48
WIRE 1392 0 1312 0
WIRE 1504 0 1504 -48
WIRE 1568 0 1504 0
WIRE 1728 0 1568 0
WIRE 144 32 144 -16
WIRE 240 32 144 32
WIRE 288 32 240 32
WIRE 368 32 288 32
WIRE 544 32 448 32
WIRE 688 32 624 32
WIRE 784 32 688 32
WIRE 832 32 832 0
WIRE 832 32 784 32
WIRE 1040 32 1040 0
WIRE 1312 32 1312 0
WIRE 1568 32 1568 0
WIRE 864 48 864 0
WIRE 880 48 864 48
WIRE 976 48 976 0
WIRE 976 48 944 48
WIRE 1136 48 1136 0
WIRE 1152 48 1136 48
WIRE 1248 48 1248 0
WIRE 1248 48 1216 48
WIRE 1392 48 1392 0
WIRE 1408 48 1392 48
WIRE 1504 48 1504 0
WIRE 1504 48 1472 48
WIRE 368 64 368 32
WIRE 448 64 448 32
WIRE 1728 64 1728 0
WIRE 288 80 288 32
WIRE 688 80 688 32
WIRE -352 112 -352 80
WIRE -352 112 -752 112
WIRE 1040 128 1040 96
WIRE 1312 128 1312 96
WIRE 1568 128 1568 96
WIRE -352 144 -352 112
WIRE -752 176 -752 112
WIRE 240 192 144 192
WIRE 288 192 288 144
WIRE 288 192 240 192
WIRE 368 192 368 160
WIRE 368 192 288 192
WIRE 448 192 448 160
WIRE 544 192 448 192
WIRE 688 192 688 144
WIRE 688 192 624 192
WIRE 832 192 688 192
WIRE 832 224 832 192
WIRE 1040 224 1040 208
WIRE 1040 224 832 224
WIRE 1312 224 1312 208
WIRE 1312 224 1040 224
WIRE 1568 224 1568 208
WIRE 1568 224 1312 224
WIRE 1728 224 1728 144
WIRE 1728 224 1568 224
WIRE -352 240 -352 224
WIRE -160 240 -352 240
WIRE 0 240 -80 240
WIRE 144 240 144 192
WIRE 144 240 80 240
WIRE 688 256 688 192
WIRE 784 256 784 32
WIRE -752 320 -752 256
WIRE 688 352 688 320
WIRE 784 352 784 320
WIRE 96 784 -272 784
WIRE -272 800 -272 784
WIRE 96 832 96 784
WIRE 192 832 96 832
WIRE 304 832 192 832
WIRE 496 832 416 832
WIRE 640 832 576 832
WIRE 800 832 640 832
WIRE 896 832 800 832
WIRE 896 864 896 832
WIRE 192 880 192 832
WIRE 304 880 304 832
WIRE 320 880 304 880
WIRE 416 880 416 832
WIRE 416 880 400 880
WIRE 640 880 640 832
WIRE -272 912 -272 880
WIRE -272 912 -672 912
WIRE -272 944 -272 912
WIRE 320 944 304 944
WIRE 416 944 400 944
WIRE -672 976 -672 912
WIRE 192 992 192 944
WIRE 192 992 96 992
WIRE 304 992 304 944
WIRE 304 992 192 992
WIRE 416 992 416 944
WIRE 496 992 416 992
WIRE 640 992 640 944
WIRE 640 992 576 992
WIRE 704 992 640 992
WIRE 896 992 896 944
WIRE 896 992 704 992
WIRE -272 1040 -272 1024
WIRE 96 1040 96 992
WIRE 96 1040 -272 1040
WIRE 704 1056 704 992
WIRE 800 1056 800 832
WIRE -672 1120 -672 1056
WIRE 704 1136 704 1120
WIRE 800 1136 800 1120
FLAG 688 352 0
FLAG 784 352 0
FLAG 1728 0 out+
FLAG 1728 224 out-
FLAG 240 32 in+
FLAG 240 192 in-
FLAG -752 320 0
FLAG 704 1136 0
FLAG 800 1136 0
FLAG 896 832 out2+
FLAG 896 992 out2-
FLAG 192 832 in2+
FLAG 192 992 in2-
FLAG -672 1120 0
FLAG -112 960 0
FLAG -240 160 0
SYMBOL Misc\\signal -352 -16 R0
WINDOW 0 -65 47 Left 2
WINDOW 3 -348 71 Left 2
WINDOW 123 -109 94 Left 2
SYMATTR InstName V2
SYMATTR Value EXP(0 2.5m 200u 100u 10)
SYMATTR Value2 AC 2.5m
SYMATTR SpiceLine Rser=1u
SYMBOL res 640 16 R90
WINDOW 0 0 56 VBottom 2
WINDOW 3 32 56 VTop 2
SYMATTR InstName R1
SYMATTR Value 47
SYMBOL res 640 176 R90
WINDOW 0 0 56 VBottom 2
WINDOW 3 32 56 VTop 2
SYMATTR InstName 47
SYMATTR Value 47
SYMBOL Misc\\signal -352 128 R0
WINDOW 0 -65 47 Left 2
WINDOW 3 -350 71 Left 2
WINDOW 123 -111 98 Left 2
SYMATTR InstName V5
SYMATTR Value EXP(0 2.5m 200u 100u 10)
SYMATTR Value2 AC 2.5m
SYMATTR SpiceLine Rser=1u
SYMBOL Misc\\signal -752 160 R0
WINDOW 0 -65 47 Left 2
WINDOW 3 -251 70 Left 2
WINDOW 123 -117 99 Left 2
SYMATTR InstName V1
SYMATTR Value SINE(0 200 1Meg)
SYMATTR Value2 AC 200
SYMATTR SpiceLine Rser=1u
SYMBOL res 1712 48 R0
SYMATTR InstName R4
SYMATTR Value 30G
SYMBOL Misc\\signal -240 64 R0
WINDOW 0 35 38 Left 2
WINDOW 3 36 61 Left 2
WINDOW 123 36 85 Left 2
SYMATTR InstName V3
SYMATTR Value SINE(0 100m 1Meg)
SYMATTR Value2 AC 100m
SYMATTR SpiceLine Rser=1u
SYMBOL ind2 464 48 R90
WINDOW 0 4 56 VBottom 2
WINDOW 3 32 56 VTop 2
SYMATTR InstName L1
SYMATTR Value 100µ
SYMBOL ind2 464 176 M270
WINDOW 0 -25 54 VTop 2
WINDOW 3 59 56 VBottom 2
SYMATTR InstName L2
SYMATTR Value 100µ
SYMBOL Misc\\signal -272 784 R0
WINDOW 0 -65 47 Left 2
WINDOW 3 -348 71 Left 2
WINDOW 123 -109 94 Left 2
SYMATTR InstName V4
SYMATTR Value EXP(0 2.5m 200u 100u 10)
SYMATTR Value2 AC 2.5m
SYMATTR SpiceLine Rser=1u
SYMBOL res 592 816 R90
WINDOW 0 0 56 VBottom 2
WINDOW 3 32 56 VTop 2
SYMATTR InstName R3
SYMATTR Value 470
SYMBOL res 592 976 R90
WINDOW 0 0 56 VBottom 2
WINDOW 3 32 56 VTop 2
SYMATTR InstName R5
SYMATTR Value 470
SYMBOL Misc\\signal -272 928 R0
WINDOW 0 -65 47 Left 2
WINDOW 3 -350 71 Left 2
WINDOW 123 -111 98 Left 2
SYMATTR InstName V6
SYMATTR Value EXP(0 2.5m 200u 100u 10)
SYMATTR Value2 AC 2.5m
SYMATTR SpiceLine Rser=1u
SYMBOL Misc\\signal -672 960 R0
WINDOW 0 -65 47 Left 2
WINDOW 3 -251 70 Left 2
WINDOW 123 -117 99 Left 2
SYMATTR InstName V7
SYMATTR Value SINE(0 200 1Meg)
SYMATTR Value2 AC 200
SYMATTR SpiceLine Rser=1u
SYMBOL res 880 848 R0
SYMATTR InstName R6
SYMATTR Value 30G
SYMBOL Misc\\signal -112 864 R0
WINDOW 0 35 38 Left 2
WINDOW 3 36 61 Left 2
WINDOW 123 36 85 Left 2
SYMATTR InstName V8
SYMATTR Value SINE(0 10m 1Meg)
SYMATTR Value2 AC 10m
SYMATTR SpiceLine Rser=1u
SYMBOL ECK+2N2630V1206XX0 624 880 R0
SYMATTR InstName U1
SYMBOL ECK+2N2630V1206XX0 176 880 R0
SYMATTR InstName U6
SYMBOL ECK+10N50VXXZ 688 1056 R0
SYMATTR InstName U7
SYMBOL ECK+10N50VXXZ 784 1056 R0
SYMATTR InstName U8
SYMBOL EL-1M10ACMXX0 304 896 R270
WINDOW 0 57 36 VRight 2
SYMATTR InstName U9
SYMBOL cap 672 256 R0
SYMATTR InstName C3
SYMATTR Value 100n
SYMBOL cap 768 256 R0
SYMATTR InstName C4
SYMATTR Value 100n
SYMBOL res -64 -32 R90
WINDOW 0 0 56 VBottom 2
WINDOW 3 32 56 VTop 2
SYMATTR InstName R2
SYMATTR Value 18
SYMBOL res -64 224 R90
WINDOW 0 0 56 VBottom 2
WINDOW 3 32 56 VTop 2
SYMATTR InstName R7
SYMATTR Value 40
SYMBOL res 96 -32 R90
WINDOW 0 0 56 VBottom 2
WINDOW 3 32 56 VTop 2
SYMATTR InstName R8
SYMATTR Value 22
SYMBOL res 96 224 R90
WINDOW 0 0 56 VBottom 2
WINDOW 3 32 56 VTop 2
SYMATTR InstName R9
SYMATTR Value 0
SYMBOL ind 864 -32 R270
WINDOW 0 32 56 VTop 2
WINDOW 3 5 56 VBottom 2
SYMATTR InstName L3
SYMATTR Value 2.2µ
SYMBOL cap 944 32 R90
WINDOW 0 0 32 VBottom 2
WINDOW 3 32 32 VTop 2
SYMATTR InstName C5
SYMATTR Value 10n
SYMBOL cap 1024 32 R0
SYMATTR InstName C6
SYMATTR Value 2.7n
SYMBOL ind 1024 112 R0
SYMATTR InstName L4
SYMATTR Value 10µ
SYMBOL ind 1136 -32 R270
WINDOW 0 32 56 VTop 2
WINDOW 3 5 56 VBottom 2
SYMATTR InstName L5
SYMATTR Value 10µ
SYMBOL cap 1216 32 R90
WINDOW 0 0 32 VBottom 2
WINDOW 3 32 32 VTop 2
SYMATTR InstName C7
SYMATTR Value 2.7n
SYMBOL cap 1296 32 R0
SYMATTR InstName C8
SYMATTR Value 3.9n
SYMBOL ind 1296 112 R0
SYMATTR InstName L6
SYMATTR Value 6.8µ
SYMBOL ind 1392 -32 R270
WINDOW 0 32 56 VTop 2
WINDOW 3 5 56 VBottom 2
SYMATTR InstName L7
SYMATTR Value 6.8µ
SYMBOL cap 1472 32 R90
WINDOW 0 0 32 VBottom 2
WINDOW 3 32 32 VTop 2
SYMATTR InstName C9
SYMATTR Value 3.9n
SYMBOL cap 1552 32 R0
SYMATTR InstName C10
SYMATTR Value 1n
SYMBOL ind 1552 112 R0
SYMATTR InstName L8
SYMATTR Value 22µ
SYMBOL cap 672 80 R0
SYMATTR InstName C1
SYMATTR Value 22n
SYMBOL cap 272 80 R0
SYMATTR InstName C2
SYMATTR Value 22n
TEXT 72 400 Left 2 !.ac dec 1000 1 100Meg
TEXT 80 432 Left 2 !;tran 0 1.1m 100u
TEXT -664 536 Left 2 !.meas AC vout_max_diff MAX MAG(V(out+, out-)/V(in+, in-))
TEXT -664 568 Left 2 !.meas AC vout_3db_diff PARAM vout_max_diff/sqrt(2)
TEXT -664 600 Left 2 !.meas AC fc_diff FIND freq WHEN MAG(V(out+, out-)/V(in+, in-))=vout_3db_diff
TEXT 304 536 Left 2 !.meas AC vout_max_cm MAX MAG(V(out+)/V(in+))
TEXT 304 568 Left 2 !.meas AC vout_3db_cm PARAM vout_max_cm/sqrt(2)
TEXT 304 600 Left 2 !.meas AC fc_cm FIND freq WHEN MAG(V(out+)/V(in+))=vout_3db_cm
TEXT 328 -40 Left 2 !K1 L1 L2 0.997
TEXT 344 976 Left 2 ;1m
TEXT 648 936 Left 2 ;2n2
TEXT 200 936 Left 2 ;2n2
TEXT 712 1112 Left 2 ;10n
TEXT 808 1112 Left 2 ;10n
TEXT 1248 328 Left 2 ;f_lo = 0.7 MHz
TEXT 1248 360 Left 2 ;f_hi = 1.3 MHz
